* SPICE netlist generated by Yosys 0.7+595 (git sha1 30088c5e, gcc 7.3.1 -fPIC -Os)

.SUBCKT pwm clk rst compare.0 compare.1 compare.2 compare.3 compare.4 compare.5 compare.6 compare.7 out
X0 sr.0 1 NOT
X1 sr.1 2 NOT
X2 sr.2 3 NOT
X3 sr.3 4 NOT
X4 sr.4 5 NOT
X5 sr.5 6 NOT
X6 sr.6 7 NOT
X7 sr.7 8 NOT
X8 rst 9 NOT
X9 compare.0 10 NOT
X10 compare.1 11 NOT
X11 compare.2 12 NOT
X12 compare.3 13 NOT
X13 compare.6 14 NOT
X14 compare.7 15 NOT
X15 sr.0 rst 16.0 NOR
X16 1 2 17 NOR
X17 sr.0 sr.1 18 NAND
X18 sr.0 sr.1 19 NOR
X19 rst 19 20 NOR
X20 18 20 21 NAND
X21 21 16.1 NOT
X22 3 18 22 NOR
X23 sr.2 17 23 NAND
X24 sr.2 17 24 NOR
X25 rst 24 25 NOR
X26 23 25 26 NAND
X27 26 16.2 NOT
X28 4 23 27 NOR
X29 sr.3 22 28 NAND
X30 sr.3 22 29 NOR
X31 rst 29 30 NOR
X32 28 30 31 NAND
X33 31 16.3 NOT
X34 5 28 32 NOR
X35 sr.4 27 33 NAND
X36 sr.4 27 34 NOR
X37 rst 34 35 NOR
X38 33 35 36 NAND
X39 36 16.4 NOT
X40 6 33 37 NOR
X41 sr.5 32 38 NAND
X42 sr.5 32 39 NOR
X43 rst 39 40 NOR
X44 38 40 41 NAND
X45 41 16.5 NOT
X46 sr.6 37 42 NAND
X47 sr.6 37 43 NOR
X48 rst 43 44 NOR
X49 42 44 45 NAND
X50 45 16.6 NOT
X51 8 42 46 NOR
X52 8 42 47 NAND
X53 9 47 48 NAND
X54 46 48 16.7 NOR
X55 sr.7 15 49 NOR
X56 sr.6 14 50 NOR
X57 7 compare.6 51 NAND
X58 7 compare.6 52 NOR
X59 8 compare.7 53 NOR
X60 6 compare.5 54 NOR
X61 50 53 55 NOR
X62 49 52 56 NOR
X63 55 56 57 NAND
X64 54 57 58 NOR
X65 5 compare.4 59 NAND
X66 6 compare.5 60 NAND
X67 59 60 61 NAND
X68 5 compare.4 62 NOR
X69 61 62 63 NOR
X70 58 63 64 NAND
X71 sr.3 13 65 NAND
X72 4 compare.3 66 NAND
X73 65 66 67 NAND
X74 67 68 NOT
X75 sr.2 12 69 NOR
X76 3 compare.2 70 NOR
X77 69 70 71 NOR
X78 68 71 72 NAND
X79 sr.1 11 73 NOR
X80 2 compare.1 74 NAND
X81 sr.1 11 75 NAND
X82 1 compare.0 76 NOR
X83 73 76 77 NOR
X84 74 75 78 NAND
X85 76 78 79 NOR
X86 75 77 80 NAND
X87 73 79 81 NOR
X88 72 81 82 NOR
X89 65 69 83 NAND
X90 66 83 84 NAND
X91 82 84 85 NOR
X92 64 85 86 NOR
X93 58 61 87 NAND
X94 51 53 88 NOR
X95 49 88 89 NOR
X96 87 89 90 NAND
X97 86 90 91 NOR
X98 sr.0 10 92 NOR
X99 80 92 93 NOR
X100 64 72 94 NOR
X101 93 94 95 NAND
X102 9 95 96 NAND
X103 91 96 97 NOR
X104 clk 97 out DFF
X105 clk 16.0 sr.0 DFF
X106 clk 16.1 sr.1 DFF
X107 clk 16.2 sr.2 DFF
X108 clk 16.3 sr.3 DFF
X109 clk 16.4 sr.4 DFF
X110 clk 16.5 sr.5 DFF
X111 clk 16.6 sr.6 DFF
X112 clk 16.7 sr.7 DFF
.ENDS pwm

************************
* end of SPICE netlist *
************************

