* SPICE netlist generated by Yosys 0.7+156 (git sha1 92a77e2, gcc 6.3.1 -fPIC -Os)

.SUBCKT counter clk rst en count.0 count.1 count.2
X0 count.1 1 NOT
X1 rst 2 NOT
X2 en count.0 3 NAND
X3 en count.0 4 NOR
X4 rst 4 5 NOR
X5 3 5 6 NAND
X6 6 7.0 NOT
X7 1 3 8 NOR
X8 1 3 9 NAND
X9 2 9 10 NAND
X10 8 10 7.1 NOR
X11 count.2 8 11 NAND
X12 count.2 8 12 NOR
X13 12 13 NOT
X14 11 13 14 NAND
X15 rst 14 7.2 NOR
X16 clk 7.0 count.0 DFF
X17 clk 7.1 count.1 DFF
X18 clk 7.2 count.2 DFF
.ENDS counter

************************
* end of SPICE netlist *
************************

