* SPICE netlist generated by Yosys 0.7+156 (git sha1 92a77e2, gcc 6.3.1 -fPIC -Os)

.SUBCKT prsgen8 clk rst compare.0 compare.1 compare.2 compare.3 compare.4 compare.5 compare.6 compare.7 out
X0 sr.0 1 NOT
X1 sr.1 2 NOT
X2 sr.2 3 NOT
X3 sr.3 4 NOT
X4 sr.5 5 NOT
X5 sr.6 6 NOT
X6 compare.1 7 NOT
X7 compare.2 8 NOT
X8 compare.3 9 NOT
X9 compare.4 10 NOT
X10 compare.5 11 NOT
X11 compare.6 12 NOT
X12 compare.7 13 NOT
X13 sr.0 rst 14 NOR
X14 14 15.1 NOT
X15 2 rst 15.2 NOR
X16 sr.2 rst 16 NOR
X17 16 15.3 NOT
X18 4 rst 15.4 NOR
X19 sr.4 rst 17 NOR
X20 17 15.5 NOT
X21 5 rst 15.6 NOR
X22 sr.6 rst 18 NOR
X23 18 15.7 NOT
X24 sr.3 sr.4 19 NAND
X25 19 20 NOT
X26 sr.3 sr.4 21 NOR
X27 21 22 NOT
X28 19 22 23 NAND
X29 20 21 24 NOR
X30 sr.5 sr.7 25 NAND
X31 25 26 NOT
X32 sr.5 sr.7 27 NOR
X33 27 28 NOT
X34 25 28 29 NAND
X35 26 27 30 NOR
X36 23 30 31 NOR
X37 24 29 32 NOR
X38 31 32 33 NOR
X39 rst 33 15.0 NOR
X40 sr.7 13 34 NOR
X41 2 compare.1 35 NAND
X42 1 compare.0 36 NOR
X43 35 36 37 NAND
X44 sr.3 9 38 NAND
X45 sr.2 8 39 NOR
X46 sr.1 7 40 NAND
X47 3 compare.2 41 NOR
X48 37 40 42 NAND
X49 39 41 43 NOR
X50 38 43 44 NAND
X51 42 44 45 NOR
X52 38 39 46 NAND
X53 sr.3 9 47 NOR
X54 sr.4 10 48 NOR
X55 47 48 49 NOR
X56 46 49 50 NAND
X57 45 50 51 NOR
X58 sr.5 11 52 NAND
X59 sr.4 10 53 NAND
X60 52 53 54 NAND
X61 51 54 55 NOR
X62 6 compare.6 56 NAND
X63 5 compare.5 57 NAND
X64 56 57 58 NAND
X65 55 58 59 NOR
X66 sr.7 13 60 NAND
X67 sr.6 12 61 NAND
X68 60 61 62 NAND
X69 59 62 63 NOR
X70 34 63 64 NOR
X71 rst 64 65 NOR
X72 clk 65 out DFF
X73 clk 15.0 sr.0 DFF
X74 clk 15.1 sr.1 DFF
X75 clk 15.2 sr.2 DFF
X76 clk 15.3 sr.3 DFF
X77 clk 15.4 sr.4 DFF
X78 clk 15.5 sr.5 DFF
X79 clk 15.6 sr.6 DFF
X80 clk 15.7 sr.7 DFF
.ENDS prsgen8

************************
* end of SPICE netlist *
************************

